# ==== Input Structure ====
read_data       curr.lammps
Reading data file ...
  orthogonal box = (-7.7862 -4.7575 -2) to (7.7862 4.7575 2)
  reading atoms ...
  96 atoms
  scanning bonds ...
  orthogonal box = (-7.7862 -4.7575 -2) to (7.7862 4.7575 2)
  reading bonds ...
  99 bonds
Finding 1-2 1-3 1-4 neighbors ...
     3 = max # of 1-2 neighbors
     3 = max # of 1-3 neighbors
     6 = max # of 1-4 neighbors
     9 = max # of special neighbors

# ==== Interactions ====
pair_style      lj/cut 8.0
pair_coeff      * * 0.1 3.0

bond_style      harmonic
bond_coeff      * 300.0 1.2

neighbor        1.0 bin
neigh_modify    delay 0 every 1 check yes

# ==== Soft warm-up to avoid blow-up ====
pair_style      soft 5.0
pair_coeff      * * 5.0
fix             warm all adapt 1 pair soft a * * v_f

variable        f equal ramp(0,1)
run             2000
Generated 0 of 1 mixed pair_coeff terms from geometric mixing rule
Step          Temp          E_pair         E_mol          TotEng         Press
0   0              0              19035.229      19035.229      704417.69
Loop time of 0.206134 on 1 procs for 2000 steps with 96 atoms

unfix warm

# Switch back to LJ after warm-up
pair_style      lj/cut 8.0
pair_coeff      * * 0.1 3.0

# ==== Energy Minimization ====
reset_timestep 0
min_style cg
minimize 1.0e-6 1.0e-8 5000 10000
Generated 0 of 1 mixed pair_coeff terms from geometric mixing rule
Step          Temp          E_pair         E_mol          TotEng         Press
0   0              29987824       19035.229      30006859       1.3882992e+10
Loop time of 0.261225 on 1 procs for 593 steps with 96 atoms

Minimization stats:
  Stopping criterion = linesearch alpha is zero
  Energy initial, next-to-last, final =
  Force two-norm initial, final = 2.0971153e+08 1.5650635
  Force max component initial, final = 56108151 0.33635333
  Final line search alpha, max atom move = 3.1202958e-09 1.0495219e-09
  Iterations, force evaluations = 593 1249

# ==== Equilibration ====
velocity all create 300.0 12345 mom yes rot yes dist gaussian
fix       1 all nvt temp 300.0 300.0 100.0

# ==== Compute Rg & Rg^2 ====
compute     rg all gyration
variable    Rg2 equal c_rg*c_rg

fix         rgavg all ave/time 100 10 1000 v_Rg2 file avg_Rg2.dat

# ==== Output ====
dump        1 all custom 100 dump.lammpstrj id type x y z
thermo_style custom step temp pe ke etotal press c_rg v_Rg2
thermo      1000

run         50000
Generated 0 of 1 mixed pair_coeff terms from geometric mixing rule
Step          Temp          PotEng         KinEng         TotEng         Press           c_rg          v_Rg2
593   300           -59.331627      84.953086      25.621459      133598.9       5.2990538      28.079971
Averages over the last 26 of 52 rows, steps 26000 to 50593:
Temp PotEng KinEng TotEng Press c_rg v_Rg2
299 16.8203 84.6699 101.49 152167 5.42718 29.4557
Loop time of 8.9626 on 1 procs for 50000 steps with 96 atoms

# ==== Save relaxed structure ====
write_data  relaxed_tree.data
System init for write_data ...
Generated 0 of 1 mixed pair_coeff terms from geometric mixing rule
